/*--------------------------------*- C++ -*----------------------------------*\
| =========                 |                                                 |
| \\      /  F ield         | OpenFOAM: The Open Source CFD Toolbox           |
|  \\    /   O peration     | Version:  3.0.0                                 |
|   \\  /    A nd           | Web:      www.OpenFOAM.org                      |
|    \\/     M anipulation  |                                                 |
\*---------------------------------------------------------------------------*/
FoamFile
{
    version     2.0;
    format      binary;
    class       polyBoundaryMesh;
    location    "constant/polyMesh";
    object      boundary;
}
// * * * * * * * * * * * * * * * * * * * * * * * * * * * * * * * * * * * * * //

7
(
    front_and_back
    {
        type            empty;
        physicalType    empty;
        inGroups        1(empty);
        nFaces          16262;
        startFace       12025;
    }
    tunnel
    {
        type            patch;
        physicalType    patch;
        nFaces          21;
        startFace       28287;
    }
    inlet
    {
        type            patch;
        physicalType    patch;
        nFaces          22;
        startFace       28308;
    }
    outlet
    {
        type            patch;
        physicalType    patch;
        nFaces          0;
        startFace       28330;
    }
    wing
    {
        type            wall;
        physicalType    wall;
        inGroups        1(wall);
        nFaces          0;
        startFace       28330;
    }
    procBoundary0to1
    {
        type            processor;
        inGroups        1(processor);
        nFaces          140;
        startFace       28330;
        matchTolerance  0.0001;
        transform       unknown;
        myProcNo        0;
        neighbProcNo    1;
    }
    procBoundary0to2
    {
        type            processor;
        inGroups        1(processor);
        nFaces          160;
        startFace       28470;
        matchTolerance  0.0001;
        transform       unknown;
        myProcNo        0;
        neighbProcNo    2;
    }
)

// ************************************************************************* //
