/*--------------------------------*- C++ -*----------------------------------*\
| =========                 |                                                 |
| \\      /  F ield         | OpenFOAM: The Open Source CFD Toolbox           |
|  \\    /   O peration     | Version:  3.0.0                                 |
|   \\  /    A nd           | Web:      www.OpenFOAM.org                      |
|    \\/     M anipulation  |                                                 |
\*---------------------------------------------------------------------------*/
FoamFile
{
    version     2.0;
    format      binary;
    class       polyBoundaryMesh;
    location    "constant/polyMesh";
    object      boundary;
}
// * * * * * * * * * * * * * * * * * * * * * * * * * * * * * * * * * * * * * //

7
(
    front_and_back
    {
        type            empty;
        physicalType    empty;
        inGroups        1(empty);
        nFaces          40848;
        startFace       30340;
    }
    tunnel
    {
        type            patch;
        physicalType    patch;
        nFaces          21;
        startFace       71188;
    }
    inlet
    {
        type            patch;
        physicalType    patch;
        nFaces          0;
        startFace       71209;
    }
    outlet
    {
        type            patch;
        physicalType    patch;
        nFaces          22;
        startFace       71209;
    }
    wing
    {
        type            wall;
        physicalType    wall;
        inGroups        1(wall);
        nFaces          215;
        startFace       71231;
    }
    procBoundary1to0
    {
        type            processor;
        inGroups        1(processor);
        nFaces          148;
        startFace       71446;
        matchTolerance  0.0001;
        transform       unknown;
        myProcNo        1;
        neighbProcNo    0;
    }
    procBoundary1to3
    {
        type            processor;
        inGroups        1(processor);
        nFaces          186;
        startFace       71594;
        matchTolerance  0.0001;
        transform       unknown;
        myProcNo        1;
        neighbProcNo    3;
    }
)

// ************************************************************************* //
