/*--------------------------------*- C++ -*----------------------------------*\
| =========                 |                                                 |
| \\      /  F ield         | OpenFOAM: The Open Source CFD Toolbox           |
|  \\    /   O peration     | Version:  3.0.0                                 |
|   \\  /    A nd           | Web:      www.OpenFOAM.org                      |
|    \\/     M anipulation  |                                                 |
\*---------------------------------------------------------------------------*/
FoamFile
{
    version     2.0;
    format      binary;
    class       polyBoundaryMesh;
    location    "constant/polyMesh";
    object      boundary;
}
// * * * * * * * * * * * * * * * * * * * * * * * * * * * * * * * * * * * * * //

7
(
    front_and_back
    {
        type            empty;
        physicalType    empty;
        inGroups        1(empty);
        nFaces          17942;
        startFace       13215;
    }
    tunnel
    {
        type            patch;
        physicalType    patch;
        nFaces          21;
        startFace       31157;
    }
    inlet
    {
        type            patch;
        physicalType    patch;
        nFaces          0;
        startFace       31178;
    }
    outlet
    {
        type            patch;
        physicalType    patch;
        nFaces          20;
        startFace       31178;
    }
    wing
    {
        type            wall;
        physicalType    wall;
        inGroups        1(wall);
        nFaces          101;
        startFace       31198;
    }
    procBoundary3to1
    {
        type            processor;
        inGroups        1(processor);
        nFaces          187;
        startFace       31299;
        matchTolerance  0.0001;
        transform       unknown;
        myProcNo        3;
        neighbProcNo    1;
    }
    procBoundary3to2
    {
        type            processor;
        inGroups        1(processor);
        nFaces          154;
        startFace       31486;
        matchTolerance  0.0001;
        transform       unknown;
        myProcNo        3;
        neighbProcNo    2;
    }
)

// ************************************************************************* //
